10
butadiene C4H6
C    0.000    0.000    0.000
C    0.000    0.000    1.340
C    0.000    1.340    2.010
C    0.000    1.340    3.350
H    0.000    0.920   -0.510
H    0.000   -0.920   -0.510
H    0.000   -0.920    1.850
H    0.000    2.260    1.500
H    0.000    0.420    3.860
H    0.000    2.260    3.860