14
hexatriene C6H8
C    0.000    0.000    0.000
C    0.000    0.000    1.340
C    0.000    1.340    2.010
C    0.000    1.340    3.350
C    0.000    2.680    4.020
C    0.000    2.680    5.360
H    0.000    0.920   -0.510
H    0.000   -0.920   -0.510
H    0.000   -0.920    1.850
H    0.000    2.260    1.500
H    0.000    0.420    3.860
H    0.000    3.600    3.510
H    0.000    1.760    5.870
H    0.000    3.600    5.870