12
hexatriene C6H8
C       -3.68000000   -1.24500000    0.00000000
C       -2.68000000   -1.24500000    0.00000000
C       -1.34000000    0.00000000    0.00000000
C        1.34000000    0.00000000    0.00000000
C        2.68000000    1.24500000    0.00000000
C        3.68000000    1.24500000    0.00000000
H       -4.59700000   -0.93400000    0.00000000
H       -3.68000000   -2.33100000    0.00000000
H       -1.34000000    1.08600000    0.00000000
H       -1.34000000   -1.08600000    0.00000000
H        1.34000000    1.08600000    0.00000000
H        1.34000000   -1.08600000    0.00000000
H        2.68000000    2.33100000    0.00000000
H        3.59700000    0.93400000    0.00000000
